8LW
  --CCDC--101521    3D                              

 45 49  0  0  0  0  0  0  0  0999 V2000
   -5.7602   15.0703   -1.5425 C      0
   -6.1672   13.7556   -0.9123 C      0
   -7.4346   13.5253   -0.3878 C      0
   -7.7469   12.2643    0.1238 C      0
   -8.8380   11.7873    0.7012 N      0
  -10.0763   12.5765    0.9024 C      0
   -8.6569   10.5113    1.0399 C      0
   -9.4739    9.7751    1.6012 O      0
   -7.3834   10.1734    0.6835 N      0
   -6.7540    8.8656    0.9122 C      0
   -6.7894   11.2556    0.1358 C      0
   -5.5098   11.4763   -0.3933 C      0
   -5.2274   12.7316   -0.9557 C      0
   -3.8911   12.9187   -1.4212 N      0
   -2.9773   13.6909   -0.6700 C      0
   -3.3215   14.2405    0.3972 O      0
   -1.6397   13.8432   -1.1547 C      0
   -1.2504   13.1257   -2.3327 C      0
   -0.6939   14.6106   -0.4339 C      0
    0.6384   14.6946   -0.9087 C      0
    1.0110   13.9835   -2.0719 C      0
    0.0859   13.2148   -2.8026 C      0
    0.4619   12.5521   -4.0198 C      0
   -0.4789   11.7907   -4.7098 C      0
   -1.8162   11.6896   -4.2499 C      0
   -2.1842   12.3527   -3.0600 C      0
   -3.5130   12.2399   -2.5975 C      0
   -4.3652   11.5849   -3.2134 O      0
   -8.1771   14.3218   -0.3763 H      0
  -10.4582   12.9051   -0.0630 H      0
  -10.8241   11.9587    1.3974 H      0
   -9.8564   13.4456    1.5207 H      0
   -7.3254    8.0931    0.3997 H      0
   -5.7358    8.8803    0.5262 H      0
   -6.7343    8.6541    1.9803 H      0
   -5.8566   15.8696   -0.8092 H      0
   -4.7258   15.0076   -1.8773 H      0
   -6.4054   15.2796   -2.3945 H      0
    1.4776   12.6443   -4.4017 H      0
   -0.1825   11.2651   -5.6164 H      0
   -2.5492   11.1082   -4.8073 H      0
    2.0442   14.0318   -2.4127 H      0
   -4.7534   10.6933   -0.3687 H      0
   -0.9872   15.1313    0.4765 H      0
    1.3708   15.3034   -0.3806 H      0
  1  2  1
  2  3  2
  2 13  1
  3  4  1
  4  5  1
  4 11  2
  5  7  1
  5  6  1
  7  8  2
  7  9  1
  9 10  1
  9 11  1
 11 12  1
 12 13  2
 13 14  1
 14 15  1
 14 27  1
 15 16  2
 15 17  1
 17 19  1
 17 18  2
 18 22  1
 18 26  1
 19 20  2
 20 21  1
 21 22  2
 22 23  1
 23 24  2
 24 25  1
 25 26  2
 26 27  1
 27 28  2
  3 29  1
  6 30  1
  6 31  1
  6 32  1
 10 33  1
 10 34  1
 10 35  1
  1 36  1
  1 37  1
  1 38  1
 23 39  1
 24 40  1
 25 41  1
 21 42  1
 12 43  1
 19 44  1
 20 45  1
M  END
$$$$
