LS8
  --CCDC--101521    3D                              

 44 46  0  0  0  0  0  0  0  0999 V2000
   -6.4195   12.5668   -0.4748 C      0
   -3.8898   12.4578   -5.0199 C      0
   -4.8357   12.4908   -6.0412 C      0
   -6.0807   11.1733   -0.3713 C      0
   -5.7054   13.5728   -6.1606 C      0
   -5.6199   14.6291   -5.2728 C      0
   -8.1626   10.7492    0.8066 C      0
   -9.7003   12.5490    1.3369 C      0
   -4.6636   14.6113   -4.2703 C      0
   -3.8094   13.5081   -4.1251 C      0
   -4.9166   11.3852   -6.9731 C      0
   -7.6230   13.0018    0.0966 C      0
   -6.9001   10.2839    0.2434 C      0
   -5.0073   10.5209   -7.7187 N      0
   -2.9413   13.5502   -3.0702 O      0
   -2.0113   12.4764   -2.9314 C      0
   -4.4884   16.0753   -3.2806 S      0
   -3.1123   16.2238   -2.9311 O      0
   -5.1589   17.1279   -3.9793 O      0
   -5.3940   15.8714   -1.9523 N      0
   -5.9680   14.8434   -1.1574 C      0
   -5.5924   13.5012   -1.1201 C      0
   -7.9777   14.3349    0.0576 C      0
   -7.1444   15.2503   -0.5489 C      0
   -6.5452    8.8325    0.4369 C      0
   -8.9711    9.9794    1.3073 O      0
   -8.4566   12.0856    0.7219 N      0
   -8.9145   14.6632    0.5053 H      0
   -7.4138   16.3054   -0.5498 H      0
   -5.6357    8.7573    1.0311 H      0
   -7.3590    8.3255    0.9532 H      0
   -6.3844    8.3656   -0.5337 H      0
   -4.6635   13.1791   -1.5884 H      0
   -6.3025   15.4730   -5.3612 H      0
   -9.6826   12.3275    2.4030 H      0
   -9.7990   13.6237    1.1910 H      0
  -10.5452   12.0408    0.8745 H      0
   -5.6285   16.7769   -1.5583 H      0
   -3.2158   11.6075   -4.9265 H      0
   -5.1419   10.8227   -0.7975 H      0
   -6.4523   13.5864   -6.9530 H      0
   -1.3808   12.4254   -3.8178 H      0
   -1.3900   12.6455   -2.0532 H      0
   -2.5536   11.5390   -2.8173 H      0
  1 22  1
  1  4  1
  1 12  2
  2 10  2
  2  3  1
  3 11  1
  3  5  2
  4 13  2
  5  6  1
  6  9  2
  7 13  1
  7 27  1
  7 26  2
  8 27  1
  9 17  1
  9 10  1
 10 15  1
 11 14  3
 12 23  1
 12 27  1
 13 25  1
 15 16  1
 17 18  2
 17 19  2
 17 20  1
 20 21  1
 21 22  2
 21 24  1
 23 24  2
 23 28  1
 24 29  1
 25 30  1
 25 31  1
 25 32  1
 22 33  1
  6 34  1
  8 35  1
  8 36  1
  8 37  1
 20 38  1
  2 39  1
  4 40  1
  5 41  1
 16 42  1
 16 43  1
 16 44  1
M  END
$$$$
