LS8
  --CCDC--101521    3D                              

 44 46  0  0  0  0  0  0  0  0999 V2000
   -6.4293   12.7708   -0.4241 C      0
   -3.9566   12.4016   -5.4517 C      0
   -5.0024   12.6951   -6.3238 C      0
   -5.9919   11.4314   -0.1231 C      0
   -5.7474   13.8664   -6.1649 C      0
   -5.4440   14.7447   -5.1414 C      0
   -8.1688   10.9439    0.8605 C      0
   -9.9014   12.6374    0.9887 C      0
   -4.3982   14.4624   -4.2728 C      0
   -3.6592   13.2740   -4.4228 C      0
   -5.3261   11.7605   -7.3730 C      0
   -7.7248   13.1541   -0.0434 C      0
   -6.7975   10.5321    0.4957 C      0
   -5.5548   10.9964   -8.1875 N      0
   -2.6969   13.0323   -3.4846 O      0
   -2.0417   11.7657   -3.5298 C      0
   -4.0414   15.6677   -3.0138 S      0
   -3.1468   15.0960   -2.0518 O      0
   -3.6935   16.8909   -3.6639 O      0
   -5.4151   15.9237   -2.1906 N      0
   -6.0893   14.9823   -1.3531 C      0
   -5.6072   13.7004   -1.0805 C      0
   -8.1755   14.4404   -0.2854 C      0
   -7.3597   15.3499   -0.9307 C      0
   -6.3323    9.1358    0.8511 C      0
   -8.9600   10.1758    1.3892 O      0
   -8.5570   12.2314    0.5822 N      0
  -10.0005   12.5355    2.0684 H      0
  -10.0684   13.6755    0.7052 H      0
  -10.6368   12.0036    0.4953 H      0
   -6.0248   15.6574   -5.0165 H      0
   -4.9826   11.1314   -0.4011 H      0
   -4.5966   13.4227   -1.3762 H      0
   -9.1741   14.7358    0.0332 H      0
   -7.7161   16.3633   -1.1094 H      0
   -5.4805    9.1979    1.5267 H      0
   -7.1431    8.5960    1.3380 H      0
   -6.0387    8.6092   -0.0558 H      0
   -5.8373   16.8425   -2.2789 H      0
   -3.3764   11.4890   -5.5804 H      0
   -6.5669   14.0874   -6.8472 H      0
   -1.5444   11.6484   -4.4915 H      0
   -1.3042   11.7098   -2.7305 H      0
   -2.7765   10.9722   -3.4019 H      0
  1 22  1
  1  4  1
  1 12  2
  2 10  2
  2  3  1
  3 11  1
  3  5  2
  4 13  2
  5  6  1
  6  9  2
  7 13  1
  7 27  1
  7 26  2
  8 27  1
  9 17  1
  9 10  1
 10 15  1
 11 14  3
 12 23  1
 12 27  1
 13 25  1
 15 16  1
 17 18  2
 17 19  2
 17 20  1
 20 21  1
 21 22  2
 21 24  1
 23 24  2
  8 28  1
  8 29  1
  8 30  1
  6 31  1
  4 32  1
 22 33  1
 23 34  1
 24 35  1
 25 36  1
 25 37  1
 25 38  1
 20 39  1
  2 40  1
  5 41  1
 16 42  1
 16 43  1
 16 44  1
M  END
$$$$
