01
  --CCDC--101521    3D                              

 63 66  0  0  0  0  0  0  0  0999 V2000
   -5.4103   16.9134   -0.0164 C      0
   -4.7630   16.0739   -1.0832 C      0
   -5.7296   15.1900   -1.7293 N      0
   -6.3575   15.6143   -2.8572 C      0
   -7.1826   14.9247   -3.4272 O      0
   -5.9856   16.9688   -3.3876 C      0
   -6.6561   18.0943   -2.9083 C      0
   -6.3368   19.3546   -3.3849 C      0
   -5.3533   19.5090   -4.3372 C      0
   -4.6757   18.4072   -4.8274 C      0
   -4.9875   17.1445   -4.3511 C      0
   -4.3714   16.0043   -4.7853 O      0
   -3.8697   15.9945   -6.1189 C      0
   -6.0204   13.9348   -1.1097 C      0
   -7.2507   13.7646   -0.4740 C      0
   -7.5351   12.5544    0.1239 C      0
   -8.6550   12.1004    0.8192 N      0
   -9.8679   12.8666    1.1011 C      0
   -8.4560   10.7950    1.2123 C      0
   -9.2322   10.0986    1.8373 O      0
   -7.1993   10.4381    0.7683 N      0
   -6.5966    9.1238    0.9768 C      0
   -6.6214   11.5096    0.0885 C      0
   -5.4042   11.6538   -0.5450 C      0
   -5.0904   12.8753   -1.1430 C      0
   -3.8718   13.0665   -1.8100 N      0
   -3.9222   12.9364   -3.2681 C      0
   -2.6314   13.3808   -3.9064 C      0
   -1.5113   12.6202   -3.3466 N      0
   -1.4224   12.8257   -1.9010 C      0
   -2.6942   12.4317   -1.1907 C      0
   -2.5785   12.7114    0.2980 C      0
   -2.4797   14.4418   -3.7137 H      0
   -2.6824   13.2107   -4.9808 H      0
   -7.2193    8.3610    0.5118 H      0
   -5.6040    9.1045    0.5293 H      0
   -6.5172    8.9262    2.0448 H      0
   -3.4630   12.3330    0.8083 H      0
   -1.6923   12.2165    0.6925 H      0
   -2.4973   13.7852    0.4604 H      0
   -5.8446   16.2644    0.7426 H      0
   -4.6619   17.5580    0.4422 H      0
   -6.1931   17.5257   -0.4615 H      0
   -0.6477   12.9290   -3.7814 H      0
   -4.7361   13.5507   -3.6504 H      0
   -4.1032   11.8936   -3.5244 H      0
   -2.8090   11.3552   -1.3085 H      0
   -3.9017   18.5318   -5.5833 H      0
   -7.4347   17.9812   -2.1554 H      0
   -6.8655   20.2277   -3.0052 H      0
   -5.1080   20.5038   -4.7060 H      0
   -3.9785   15.4695   -0.6303 H      0
   -4.3271   16.7308   -1.8344 H      0
   -3.1282   16.7838   -6.2336 H      0
   -3.4083   15.0301   -6.3261 H      0
   -4.6891   16.1622   -6.8163 H      0
   -7.9766   14.5761   -0.4502 H      0
  -10.3277   13.1762    0.1638 H      0
  -10.5668   12.2469    1.6610 H      0
   -9.6126   13.7473    1.6885 H      0
   -4.6978   10.8257   -0.5780 H      0
   -1.2246   13.8790   -1.7079 H      0
   -0.6022   12.2248   -1.5110 H      0
  1  2  1
  2  3  1
  3  4  1
  4  5  2
  4  6  1
  6  7  4
  7  8  4
  8  9  4
  9 10  4
  6 11  4
 10 11  4
 11 12  1
 12 13  1
  3 14  1
 14 15  4
 15 16  4
 16 17  1
 17 18  1
 17 19  1
 19 20  2
 19 21  1
 21 22  1
 16 23  4
 21 23  1
 23 24  4
 14 25  4
 24 25  4
 25 26  1
 26 27  1
 27 28  1
 28 29  1
 29 30  1
 26 31  1
 30 31  1
 31 32  1
 28 33  1
 28 34  1
 22 35  1
 22 36  1
 22 37  1
 32 38  1
 32 39  1
 32 40  1
  1 41  1
  1 42  1
  1 43  1
 29 44  1
 27 45  1
 27 46  1
 31 47  1
 10 48  1
  7 49  1
  8 50  1
  9 51  1
  2 52  1
  2 53  1
 13 54  1
 13 55  1
 13 56  1
 15 57  1
 18 58  1
 18 59  1
 18 60  1
 24 61  1
 30 62  1
 30 63  1
M  END
$$$$
