5XE
  --CCDC--101521    3D                              

 44 46  0  0  0  0  0  0  0  0999 V2000
   -4.6876   14.3248   -4.3384 C      0
   -5.9407   14.7936   -4.6887 C      0
   -6.4300   14.3709   -5.8908 C      0
   -7.6611   14.8266   -6.2951 C      0
   -8.3484   14.2438   -7.9006 Br     0
   -8.4226   15.6800   -5.5250 C      0
   -7.9384   16.1103   -4.3139 C      0
   -6.6961   15.6639   -3.8997 C      0
   -6.2056   16.2555   -2.3617 S      0
   -5.4132   17.5691   -2.6034 O      0
   -7.4733   16.5257   -1.5707 O      0
   -5.3091   15.1313   -1.5087 N      0
   -5.8924   13.9770   -1.0226 C      0
   -7.1487   13.8008   -0.4081 C      0
   -7.4821   12.5369    0.0249 C      0
   -8.6150   12.0649    0.6270 N      0
   -9.8845   12.7733    0.9767 C      0
   -8.4085   10.7578    0.8800 C      0
   -9.2524   10.0494    1.4442 O      0
   -7.1854   10.4006    0.4664 N      0
   -6.6362    9.0288    0.6062 C      0
   -6.6034   11.4971   -0.0398 C      0
   -5.3887   11.6305   -0.5690 C      0
   -5.0251   12.8907   -1.0623 C      0
   -3.8201   13.1479   -1.6141 O      0
   -3.1234   12.0154   -2.1441 C      0
   -8.5205   16.7891   -3.6923 H      0
  -10.3392   13.1718    0.0710 H      0
  -10.5718   12.0739    1.4505 H      0
   -9.6671   13.5901    1.6634 H      0
   -7.2705    8.3271    0.0666 H      0
   -5.6284    8.9976    0.1947 H      0
   -6.6067    8.7552    1.6599 H      0
   -4.7005   10.7879   -0.6168 H      0
   -3.7239   11.5532   -2.9263 H      0
   -2.1704   12.3379   -2.5609 H      0
   -2.9459   11.2934   -1.3484 H      0
   -5.8569   13.6874   -6.5156 H      0
   -4.3215   15.2993   -1.3455 H      0
   -3.9603   14.6398   -5.0853 H      0
   -4.4077   14.7283   -3.3664 H      0
   -4.7080   13.2372   -4.2877 H      0
   -9.3999   16.0101   -5.8742 H      0
   -7.8338   14.6376   -0.2799 H      0
  1  2  1
  2  3  2
  2  8  1
  3  4  1
  4  5  1
  4  6  2
  6  7  1
  7  8  2
  8  9  1
  9 10  2
  9 11  2
  9 12  1
 12 13  1
 13 14  2
 13 24  1
 14 15  1
 15 16  1
 15 22  2
 16 17  1
 16 18  1
 18 20  1
 18 19  2
 20 22  1
 20 21  1
 22 23  1
 23 24  2
 24 25  1
 25 26  1
  7 27  1
 17 28  1
 17 29  1
 17 30  1
 21 31  1
 21 32  1
 21 33  1
 23 34  1
 26 35  1
 26 36  1
 26 37  1
  3 38  1
 12 39  1
  1 40  1
  1 41  1
  1 42  1
  6 43  1
 14 44  1
M  END
$$$$
